%chk=Z:\home\xyz666\Programing\python\test\backup\3.chk
# hf/3-21g geom=connectivity

Title Card Required

0 1
 C                  1.43601188    1.33928569    0.00000000
 H                  1.79266630    0.33047569    0.00000000
 H                  1.79268472    1.84368388   -0.87365150
 H                  0.36601188    1.33929888    0.00000000
 C                  1.94935409    2.06524197    1.25740497
 H                  1.59429775    3.07461506    1.25642745
 H                  1.59108498    1.56197354    2.13105486
 C                  3.48935149    2.06278562    1.25881364
 H                  3.84761997    2.56572750    0.38497547
 H                  3.84440772    1.05341292    1.26016738
 C                  4.00269398    2.78921093    2.51594759
 H                  3.64435717    2.28631663    3.38978513
 H                  3.64770560    3.79860744    2.51455266
 C                  5.54269115    2.78665152    2.51741591
 H                  5.90102710    3.28953807    1.64357355
 H                  5.89936419    3.29138305    3.39087479
 H                  5.89767975    1.77725510    2.51881957

 1 2 1.0 3 1.0 4 1.0 5 1.0
 2
 3
 4
 5 6 1.0 7 1.0 8 1.0
 6
 7
 8 9 1.0 10 1.0 11 1.0
 9
 10
 11 12 1.0 13 1.0 14 1.0
 12
 13
 14 15 1.0 16 1.0 17 1.0
 15
 16
 17

