%chk=Z:\home\xyz666\Programing\python\test\backup\5.chk
# b3lyp/6-31g(d) geom=connectivity

Title Card Required

0 1
 C                 -2.13523363   -0.14880952   -0.02795171
 C                 -0.75800763   -0.14880952   -0.02795171
 C                 -0.23263263    1.18346048   -0.02795171
 C                 -1.23909263    2.12351348   -0.02714171
 S                 -2.74972863    1.40635648   -0.02714971
 C                  1.27592780    1.49304856   -0.02875875
 Cr                 2.72767231    1.79097683   -0.02953540
 H                  2.93035514    0.80070734   -1.04106197
 H                  2.93153969    0.80020710    0.98126302
 H                  2.52498949    2.78124633    0.98199117
 H                  2.52380494    2.78174656   -1.04033382
 X                 -3.16755469   -1.58658995   -0.02878287
 C                 -2.15217370   -2.31562858   -0.03081382
 C                 -2.85254148   -1.81345515    1.15940883
 C                 -2.85502833   -1.81029512   -1.21822977
 H                 -1.27149259   -2.94801923    0.08136072
 C                 -3.98824648   -0.99776195    0.70759116
 H                 -2.66733857   -1.94704628    2.22522010
 C                 -3.98978344   -0.99580894   -0.76187074
 H                 -2.49594018   -2.06754303   -2.21471267
 H                 -4.75446618   -0.44793497    1.25412410
 H                 -4.64853591   -0.52240623   -1.48990560
 O                 -1.05589752    3.54173026   -0.02629149
 S                 -1.36682661    4.35969627    1.38185976
 O                 -2.54790244    5.03557349    1.17791656
 O                 -1.27279051    3.36106411    2.33149590
 C                 -0.05630400    5.39315294    1.40853754
 H                  0.66442966    5.16329017    2.23448737
 O                  4.48112891    2.15082272   -0.03047345
 S                  5.28400850    2.07612211   -1.47907258
 O                  6.04834826    0.93286344   -1.43338544
 O                  4.25779194    2.21040311   -2.39382171
 C                  6.21907137    3.45369409   -1.36004847
 H                  5.91717516    4.25061753   -2.08686257
 H                  6.16091921    3.92967871   -0.34481314
 C                  0.13320298   -1.40473289   -0.02831009
 C                 -0.50134866   -2.78814516   -0.02870484
 O                  1.38610133   -1.28718739   -0.02827654
 N                  0.50992682   -3.82589458   -0.02900096
 H                 -1.12321542   -2.88585408   -0.91855576
 C                 -1.39397484   -2.89179484    1.20340663
 H                  1.47911584   -3.57957587   -0.02893067
 ?s                 0.17083088   -5.02902160   -0.02934427
 H                 -0.78677043   -2.78667956    2.10249167
 H                 -2.14350447   -2.10083131    1.17727533
 H                 -1.89056485   -3.86206174    1.21236177
 C                  0.76763905    5.34031846    0.10856586
 C                  1.24759090    6.63026868   -0.54117262
 O                  1.04409104    4.23060544   -0.41648893
 N                  2.00113160    6.35732429   -1.74835108
 H                  1.87907491    7.16402209    0.16906340
 C                  0.02106103    7.48540003   -0.84116975
 H                  2.14221459    5.41345799   -2.04703532
 ?s                 2.47482993    7.30169813   -2.41638456
 H                 -0.62555483    6.96020607   -1.54413457
 H                 -0.52543397    7.67455981    0.08276889
 H                  0.33625760    8.43351108   -1.27687178
 C                 -0.46100512    6.86899589    1.58088778
 C                 -0.45099174    7.50431320    2.96391239
 O                 -0.79998301    7.54968621    0.57822836
 N                 -0.86290989    8.89221185    2.90339106
 H                  0.55918139    7.44190368    3.36857921
 C                 -1.38438964    6.69303412    3.85622289
 H                 -1.10615304    9.30372983    2.02504831
 ?s                -0.91420269    9.57510388    3.94911011
 H                 -2.39830830    6.73842102    3.45871907
 H                 -1.05134299    5.65550989    3.88313428
 H                 -1.37161606    7.10448105    4.86550380
 N                  4.33251449    0.00621703   -3.33592763
 H                  5.33207449   -0.02344897   -3.33592763
 C                  3.64556049    1.28202903   -3.33592763
 H                  3.02072749    1.35883203   -4.22575063
 C                  2.75893749    1.42815103   -2.10378663
 C                  4.63603949    2.43764003   -3.33592763
 H                  3.37171049    1.36250303   -1.20473163
 H                  2.25578149    2.39471203   -2.13014363
 H                  2.01470249    0.63182903   -2.09455463
 O                  5.87296549    2.20615503   -3.33592763
 ?s                 4.22083849    3.61666903   -3.33592763
 ?s                 3.67567449   -1.05729697   -3.33592763
 C                  7.71553602    3.18456586   -1.60451428
 C                  8.71373663    4.33229268   -1.55156016
 O                  8.11304284    2.01570115   -1.84806068
 N                 10.06082008    3.86429639   -1.80836303
 H                  8.66908506    4.78737082   -0.56211079
 C                  8.28658607    5.36948441   -2.58471026
 H                 10.22752014    2.89488272   -1.98849768
 ?s                11.01452477    4.67234032   -1.80472916
 H                  8.31741500    4.92586788   -3.57987570
 H                  7.27186650    5.70299977   -2.36742583
 H                  8.96473388    6.22197605   -2.54632742

 1 2 2.0 5 1.0
 2 3 1.0 35 1.0
 3 4 2.0 6 1.0
 4 5 1.0 22 1.0
 5
 6 7 3.0
 7 8 1.0 9 1.0 10 1.0 11 1.0 28 1.0
 8
 9
 10
 11
 12 13 1.0 14 1.0 15 1.0
 13 16 1.0 17 1.0
 14 18 1.0 19 1.0
 15
 16 18 1.0 20 1.0
 17
 18 21 1.0
 19
 20
 21
 22 23 1.0
 23 24 2.0 25 2.0 26 1.5
 24
 25
 26 27 1.0 46 1.0 57 1.0
 27
 28 29 1.0
 29 30 2.0 31 2.0 32 1.5
 30
 31
 32 33 1.0 34 1.0 80 1.0
 33
 34
 35 36 1.0 37 2.0
 36 38 1.0 39 1.0 40 1.0
 37
 38 41 1.0 42 1.0
 39
 40 43 1.0 44 1.0 45 1.0
 41
 42
 43
 44
 45
 46 47 1.0 48 2.0
 47 49 1.0 50 1.0 51 1.0
 48
 49 52 1.0 53 1.0
 50
 51 54 1.0 55 1.0 56 1.0
 52
 53
 54
 55
 56
 57 58 1.0 59 2.0
 58 60 1.0 61 1.0 62 1.0
 59
 60 63 1.0 64 1.0
 61
 62 65 1.0 66 1.0 67 1.0
 63
 64
 65
 66
 67
 68 69 1.0 70 1.0 79 1.0
 69
 70 71 1.0 72 1.0 73 1.0
 71
 72 74 1.0 75 1.0 76 1.0
 73 77 2.0 78 1.0
 74
 75
 76
 77
 78
 79
 80 81 1.0 82 2.0
 81 83 1.0 84 1.0 85 1.0
 82
 83 86 1.0 87 1.0
 84
 85 88 1.0 89 1.0 90 1.0
 86
 87
 88
 89
 90

