%chk=Z:\home\xyz666\Programing\python\test\backup\4.chk
# b3lyp/6-31g(d) geom=connectivity

Title Card Required

0 2
Ru                  2.01545287    1.48822950   -0.00089140
 H                  2.37062586    1.99404487    0.87255177
 H                  2.37255823    1.99196432   -0.87474893
 C                  0.47545466    1.48661835   -0.00259259
 H                  0.12028194    0.98081932   -0.87604533
 C                 -0.03851035    0.76159236    1.25509469
 H                  0.31824413    1.26627383    2.12854924
 H                 -1.10851019    0.76215080    1.25487888
Ru                  0.47406492   -0.69060109    1.25597051
 H                  1.45723727   -0.72155257    1.67705736
 H                  0.50441296   -1.05872754    0.25174847
 C                 -0.47207161   -1.56842008    2.09612496
 C                 -1.74243769   -1.41196481    1.38572875
 C                 -0.30762123   -1.00896799    3.35201790
 C                  0.03721348   -2.91310764    1.82145029
 C                 -2.77963659   -0.70450566    1.96973209
 C                 -2.01833215   -2.65997109    0.67204265
 C                 -1.40417005   -0.26105220    3.96942638
 C                  0.37550408   -1.76218151    4.40510778
 C                 -0.91840853   -3.58773627    0.94134613
 C                  0.68337583   -3.62556456    2.81754104
 C                 -2.60580774   -0.11306711    3.29750916
 C                 -4.15206164   -1.20465300    1.87346706
 C                 -3.31648848   -3.13302941    0.58098824
 C                 -1.39876360   -0.55205517    5.40409245
 C                 -0.29885870   -1.47980231    5.67335507
 C                  0.85723120   -3.03409255    4.14530896
 C                 -1.17618164   -4.93832076    1.10496788
 C                  0.41083691   -5.05340905    2.99052138
 C                 -3.87080733   -0.24767857    4.02182614
 C                 -4.82644332   -0.92229420    3.14174159
 C                 -4.41301808   -2.38511840    1.19841694
 C                 -3.58902417   -4.56090772    0.75399862
 C                 -2.59529700   -0.67936624    6.08922614
 C                 -0.45501457   -2.48462541    6.61317204
 C                  0.69213337   -4.09640309    5.13888004
 C                 -0.49308461   -5.69153740    2.15803346
 C                 -2.54865369   -5.43845104    1.00868967
 C                  0.41624550   -5.34441887    4.42519449
 C                 -3.86569319   -0.52294388    5.37886829
 C                 -5.72527572   -1.83567493    3.66630633
 C                 -5.36328305   -3.35076759    1.75298709
 C                 -4.85397950   -4.69546163    1.47830477
 C                 -2.76040835   -1.74167957    7.08283314
 C                  0.05425202   -3.82931294    6.33850161
 C                 -1.72002342   -2.61920627    7.33751439
 C                 -1.44336056   -6.65718804    2.71260852
 C                 -2.71375041   -6.50074557    2.00224374
 C                 -0.48258439   -6.25779551    4.94974327
 C                 -4.81594216   -1.48855254    5.93340639
 C                 -5.71988375   -2.12667357    5.10093127
 C                 -6.00115392   -3.08370287    2.95259463
 C                 -5.01016660   -5.70029204    2.41812239
 C                 -4.13283985   -2.24179214    6.98652547
 C                 -0.89600885   -4.79495171    6.89306261
 C                 -1.99256102   -4.04706300    7.51048553
 C                 -1.43825101   -6.93242932    4.06963325
 C                 -3.91030139   -6.62803605    2.68737837
 C                 -1.15696130   -5.97541986    6.21800064
 C                 -5.99245502   -3.55456004    5.27392517
 C                 -6.16628301   -4.14600681    3.94616329
 C                 -5.68456828   -5.41793247    3.68637518
 C                 -4.39062919   -3.59237302    7.15014615
 C                 -3.29073810   -4.52011644    7.41940749
 C                 -2.70325113   -7.06698692    4.79395068
 C                 -3.90489556   -6.91903702    4.12203364
 C                 -2.52941030   -6.47554133    6.12171817
 C                 -5.34628307   -4.26701109    6.27000210
 C                 -5.00147381   -6.17114878    4.73945365
 C                 -3.56661985   -5.76812928    6.70571370
 C                 -4.83702707   -5.61167887    5.99535084
 C                  2.53030298    0.03684254    0.00140619
 C                  2.24306781   -0.38515972    1.37340511
 C                  3.84075202    0.21962849   -0.40677300
 C                  1.57311080   -0.62639790   -0.88566618
 C                  3.28189467   -0.60155942    2.26298358
 C                  1.10839101   -1.30926147    1.33429255
 C                  4.93899976   -0.00916984    0.53370230
 C                  4.26900960   -0.25037338   -1.72536421
 C                  0.69433444   -1.45834198   -0.06192975
 C                  1.97818105   -1.07096277   -2.13290216
 C                  4.66734126   -0.40835812    1.83145261
 C                  3.24544675   -1.75449604    3.16430125
 C                  1.07392736   -2.39978921    2.18684544
 C                  6.04599956   -0.62060492   -0.20364243
 C                  5.63191968   -0.76967128   -1.59982471
 C                  3.36362974   -0.87771791   -2.56443530
 C                  0.26819296   -2.68985312   -0.52999094
 C                  1.52766503   -2.37293352   -2.62772238
 C                  5.48712546   -1.44188045    2.46609009
 C                  4.60837485   -2.27382798    3.28983511
 C                  2.17218654   -2.62858558    3.12729493
 C                  0.62342117   -3.70179225    1.69199494
 C                  6.82143764   -1.59818334    0.39664474
 C                  6.01569371   -1.88822748   -2.32014380
 C                  3.76934937   -2.06026917   -3.32595258
 C                  0.69643376   -3.15986715   -1.84855098
 C                  0.23175092   -3.84280027    0.37137701
 C                  2.63466735   -2.98437455   -3.36507482
 C                  6.53422663   -2.02023879    1.76863664
 C                  4.82426482   -3.63912739    3.37157418
 C                  2.40041898   -4.07200914    3.21371433
 C                  1.44321350   -4.73524178    2.32662771
 C                  7.22718979   -2.78075437   -0.36487821
 C                  5.05850895   -2.55147976   -3.20720331
 C                  6.83551578   -2.92173858   -1.68549600
 C                  0.92467200   -4.60329952   -1.76212562
 C                  0.63746295   -5.02533394   -0.39012685
 C                  2.85054487   -4.34966500   -3.28332920
 C                  6.76244671   -3.46361320    1.85507497
 C                  5.93123392   -4.25055633    2.63426012
 C                  3.68955265   -4.56322938    3.33244986
 C                  1.82699103   -5.85382186    1.60632975
 C                  7.19072223   -3.93365639    0.53647800
 C                  5.28673743   -3.99489044   -3.12077865
 C                  6.38498592   -4.22371545   -2.18031887
 C                  1.97177004   -5.18163730   -2.45955740
 C                  1.41291482   -6.00290699    0.21018301
 C                  4.21346489   -4.86897656   -3.15778436
 C                  5.48071690   -5.55258176    2.13944100
 C                  4.09527950   -5.74579301    2.57096123
 C                  3.18990469   -6.37315887    1.73188891
 C                  6.76458475   -5.16517387    0.06843172
 C                  6.35050823   -5.31424502   -1.32773747
 C                  2.79157946   -6.21511869   -1.82489564
 C                  2.51990633   -6.61433796   -0.52715579
 C                  4.17701857   -6.02190243   -2.25642891
 C                  5.88577594   -5.99713279    0.89220586
 C                  3.61815732   -6.84317764    0.41332561
 C                  5.21581920   -6.23834235   -1.36685977
 C                  4.92861896   -6.66038127    0.00515547
 C                 -0.03939475    2.93800560   -0.00486212
 C                 -1.48941611    2.74601714    0.05471557
 C                  0.54754524    3.42582680   -1.16021036
 C                  0.40713389    3.42073907    1.30303035
 C                 -2.27403395    3.05228229   -1.04433692
 C                 -1.93908170    3.11014645    1.39940735
 C                 -0.28197264    3.74962386   -2.32212521
 C                  1.61458295    4.42430142   -1.07379251
 C                 -0.76690828    3.52714903    2.17091424
 C                  1.41642896    4.36517412    1.38478198
 C                 -1.65352875    3.56805822   -2.26579362
 C                 -3.55319262    3.74024730   -0.86151983
 C                 -3.14901962    3.76086838    1.57231224
 C                  0.27238179    4.94823521   -2.95379021
 C                  1.44452166    5.36520355   -2.18227648
 C                  2.03695344    4.88091404    0.16330984
 C                 -0.86814358    4.57225433    3.07357911
 C                  1.30938352    5.47006998    2.33908065
 C                 -2.54921158    4.57476738   -2.83786723
 C                 -3.72326015    4.68118763   -1.97000788
 C                 -3.97851191    4.08467657    0.41039269
 C                 -3.25604899    4.86580570    2.52661985
 C                 -0.57481724    5.90046220   -3.49492422
 C                  1.70602182    6.71181193   -1.99366686
 C                  2.31340167    6.30455641    0.36271708
 C                  0.19885908    5.57072278    3.16000850
 C                 -2.14735166    5.26021447    3.25638180
 C                  1.86374293    6.66868993    1.70741718
 C                 -2.02485039    5.70853129   -3.43534969
 C                 -4.30944342    5.91561179   -1.74658363
 C                 -4.59824138    5.38973070    0.64661085
 C                 -4.15169810    5.87245685    1.95451646
 C                 -0.29836804    7.32413618   -3.29553891
 C                  2.15253488    7.19455435   -0.68578051
 C                  0.81033808    7.71852292   -2.56578123
 C                 -0.42087866    6.87578486    3.39622274
 C                 -1.87090963    6.68383438    3.45578699
 C                  1.27755583    7.90309938    1.93084828
 C                 -2.64457923    7.01353214   -3.19914078
 C                 -3.75511794    7.11419592   -2.37823015
 C                 -4.75910222    6.27973124   -0.40185656
 C                 -3.89022623    7.21908035    2.14312539
 C                 -1.57755050    8.01205123   -3.11272456
 C                  1.53280522    8.49959415   -0.44956420
 C                  0.70329115    8.82341949   -1.61146728
 C                  0.10347045    8.00952284    2.79873115
 C                 -2.71812578    7.63605483    2.91463303
 C                  1.10748538    8.84401545    0.82235833
 C                 -3.86218593    8.21913814   -1.42391317
 C                 -4.48268423    7.70337785   -0.20245901
 C                 -4.06032042    8.16001123    1.03464592
 C                 -1.67880145    9.05715875   -2.21006498
 C                 -0.50667507    9.47412830   -1.43855603
 C                 -0.79221578    9.01619876    2.22661528
 C                 -2.16377606    8.83465747    2.28297282
 C                 -0.17170342    9.53195962    1.00516115
 C                 -2.85288743    9.16355660   -1.34215598
 C                 -2.99331536    9.15848945    1.12106684
 C                 -0.95633136    9.83825216   -0.09385209
 C                 -2.40637818    9.64630369   -0.03429851

 1 2 1.0 3 1.0 4 1.0 72 1.0
 2
 3
 4 5 1.0 6 1.0 132 1.0
 5
 6 7 1.0 8 1.0 9 1.0
 7
 8
 9 10 1.0 11 1.0 12 1.0
 10
 11
 12 13 1.0 14 2.0 15 1.0
 13 16 2.0 17 1.0
 14 18 1.0 19 1.0
 15 20 1.0 21 2.0
 16 22 1.0 23 1.0
 17 20 1.0 24 2.0
 18 22 2.0 25 1.0
 19 26 1.0 27 2.0
 20 28 2.0
 21 27 1.0 29 1.0
 22 30 1.0
 23 31 1.0 32 2.0
 24 33 1.0 32 1.0
 25 34 2.0 26 1.0
 26 35 2.0
 27 36 1.0
 28 37 1.0 38 1.0
 29 37 2.0 39 1.0
 30 40 2.0 31 1.0
 31 41 2.0
 32 42 1.0
 33 43 1.0 38 2.0
 34 40 1.0 44 1.0
 35 45 1.0 46 1.0
 36 39 1.0 45 2.0
 37 47 1.0
 38 48 1.0
 39 49 2.0
 40 50 1.0
 41 51 1.0 52 1.0
 42 52 2.0 43 1.0
 43 53 2.0
 44 46 2.0 54 1.0
 45 55 1.0
 46 56 1.0
 47 57 2.0 48 1.0
 48 58 2.0
 49 59 1.0 57 1.0
 50 54 1.0 51 2.0
 51 60 1.0
 52 61 1.0
 53 62 1.0 58 1.0
 54 63 2.0
 55 56 1.0 59 2.0
 56 64 2.0
 57 65 1.0
 58 66 1.0
 59 67 1.0
 60 68 2.0 61 1.0
 61 62 2.0
 62 69 1.0
 63 68 1.0 64 1.0
 64 70 1.0
 65 66 2.0 67 1.0
 66 69 1.0
 67 70 2.0
 68 71 1.0
 69 71 2.0
 70 71 1.0
 71
 72 73 1.0 74 2.0 75 1.0
 73 76 2.0 77 1.0
 74 78 1.0 79 1.0
 75 80 1.0 81 2.0
 76 82 1.0 83 1.0
 77 80 1.0 84 2.0
 78 82 2.0 85 1.0
 79 86 1.0 87 2.0
 80 88 2.0
 81 87 1.0 89 1.0
 82 90 1.0
 83 91 1.0 92 2.0
 84 93 1.0 92 1.0
 85 94 2.0 86 1.0
 86 95 2.0
 87 96 1.0
 88 97 1.0 98 1.0
 89 97 2.0 99 1.0
 90 100 2.0 91 1.0
 91 101 2.0
 92 102 1.0
 93 103 1.0 98 2.0
 94 100 1.0 104 1.0
 95 105 1.0 106 1.0
 96 99 1.0 105 2.0
 97 107 1.0
 98 108 1.0
 99 109 2.0
 100 110 1.0
 101 111 1.0 112 1.0
 102 112 2.0 103 1.0
 103 113 2.0
 104 106 2.0 114 1.0
 105 115 1.0
 106 116 1.0
 107 117 2.0 108 1.0
 108 118 2.0
 109 119 1.0 117 1.0
 110 114 1.0 111 2.0
 111 120 1.0
 112 121 1.0
 113 122 1.0 118 1.0
 114 123 2.0
 115 116 1.0 119 2.0
 116 124 2.0
 117 125 1.0
 118 126 1.0
 119 127 1.0
 120 128 2.0 121 1.0
 121 122 2.0
 122 129 1.0
 123 128 1.0 124 1.0
 124 130 1.0
 125 126 2.0 127 1.0
 126 129 1.0
 127 130 2.0
 128 131 1.0
 129 131 2.0
 130 131 1.0
 131
 132 133 1.0 134 2.0 135 1.0
 133 136 2.0 137 1.0
 134 138 1.0 139 1.0
 135 140 1.0 141 2.0
 136 142 1.0 143 1.0
 137 140 1.0 144 2.0
 138 142 2.0 145 1.0
 139 146 1.0 147 2.0
 140 148 2.0
 141 147 1.0 149 1.0
 142 150 1.0
 143 151 1.0 152 2.0
 144 153 1.0 152 1.0
 145 154 2.0 146 1.0
 146 155 2.0
 147 156 1.0
 148 157 1.0 158 1.0
 149 157 2.0 159 1.0
 150 160 2.0 151 1.0
 151 161 2.0
 152 162 1.0
 153 163 1.0 158 2.0
 154 160 1.0 164 1.0
 155 165 1.0 166 1.0
 156 159 1.0 165 2.0
 157 167 1.0
 158 168 1.0
 159 169 2.0
 160 170 1.0
 161 171 1.0 172 1.0
 162 172 2.0 163 1.0
 163 173 2.0
 164 166 2.0 174 1.0
 165 175 1.0
 166 176 1.0
 167 177 2.0 168 1.0
 168 178 2.0
 169 179 1.0 177 1.0
 170 174 1.0 171 2.0
 171 180 1.0
 172 181 1.0
 173 182 1.0 178 1.0
 174 183 2.0
 175 176 1.0 179 2.0
 176 184 2.0
 177 185 1.0
 178 186 1.0
 179 187 1.0
 180 188 2.0 181 1.0
 181 182 2.0
 182 189 1.0
 183 188 1.0 184 1.0
 184 190 1.0
 185 186 2.0 187 1.0
 186 189 1.0
 187 190 2.0
 188 191 1.0
 189 191 2.0
 190 191 1.0
 191

